Version 4
SHEET 1 1136 680
WIRE -640 -96 -656 -96
WIRE -320 -96 -640 -96
WIRE -320 -80 -320 -96
WIRE -656 -48 -656 -96
WIRE -320 16 -320 0
WIRE -320 32 -320 16
WIRE -656 128 -656 32
WIRE -320 128 -320 96
FLAG -656 128 0
FLAG -640 -96 nVp
FLAG -320 128 0
FLAG -320 16 nDa
SYMBOL diode -336 32 R0
SYMATTR InstName D11
SYMATTR Value CMAD6001
SYMBOL voltage -656 -64 R0
WINDOW 123 0 0 Left 0
WINDOW 39 0 0 Left 0
SYMATTR InstName V1
SYMATTR Value 3.3V
SYMBOL res -336 -96 R0
SYMATTR InstName R1
SYMATTR Value 10kR
TEXT -776 256 Left 2 !.step temp 10 50 20
TEXT -776 224 Left 2 !.tran 0 1 0
TEXT -400 216 Left 2 !.model CMAD6001 D( IS=70.1f RS=0.658 BV=75.0 IBV=500p CJO=2.00p M=0.333 N=1.24 TT=4.32u mfg=Central type=silicon )
